LTspice 24.1.4 for Windows
Circuit: C:\Users\emred\OneDrive\Masaüstü\Yeni klasör\ANALOG TÜM DEVRELER\ödev2\ltspice\unbuffered (2).net
Start Time: Sun Nov 23 22:54:30 2025
solver = Normal
Maximum thread count: 8
tnom = 27
temp = 27
method = trap
AsciiRawFile = true
CompressTranOnly = false
Compress1stOrder = false
Compress2ndOrder = false
Direct Newton iteration for .op point succeeded.
Total elapsed time: 0.402 seconds.

Files loaded:
C:\Users\emred\OneDrive\Masaüstü\Yeni klasör\ANALOG TÜM DEVRELER\ödev2\ltspice\unbuffered (2).net
C:\Users\emred\AppData\Local\LTspice\lib\cmp\standard.mos

