LTspice 24.1.4 for Windows
Circuit: C:\Users\emred\OneDrive\Masaüstü\Yeni klasör\ANALOG TÜM DEVRELER\ödev2\ltspice\unbuffered.net
Start Time: Sun Nov 23 21:33:41 2025
solver = Normal
Maximum thread count: 8
tnom = 27
temp = 27
method = trap
AsciiRawFile = true
CompressTranOnly = false
Compress1stOrder = false
Compress2ndOrder = false
WARNING: Node n006 is floating.
WARNING: Node n007 is floating.
WARNING: Node n001 is floating.
WARNING: Node n002 is floating.
WARNING: Node n014 is floating.
WARNING: Node n013 is floating.
WARNING: Node n005 is floating.
WARNING: Node n015 is floating.
WARNING: Node n012 is floating.

.step 
Total elapsed time: 0.250 seconds.

Files loaded:
C:\Users\emred\OneDrive\Masaüstü\Yeni klasör\ANALOG TÜM DEVRELER\ödev2\ltspice\unbuffered.net
C:\Users\emred\AppData\Local\LTspice\lib\cmp\standard.mos

Measurement "VCM_LOW" FAIL'ed
Measurement "VCM_HIGH" FAIL'ed
